//123-meter generated by script
//Deltamode components added in
//Used to test various powerflow components in deltamode
//Modified from base version for this testing purpose

//#set pauseatexit=1
#set relax_naming_rules=1
#define rotor_convergence=0.001

clock {
	timezone "PST+8PDT";
	starttime '2010-01-01 12:00:00 PST';
	stoptime '2010-01-01 12:10:00 PST';
}
#set relax_naming_rules=1
#set suppress_repeat_messages=1
#set profiler=1
#set double_format=%+.12lg
#set complex_format=%+.12lg%+.12lg%c

//Deltamode declarations - global values
#set deltamode_maximumtime=5000000000000
#set deltamode_iteration_limit=10		//Iteration limit

module tape;

module powerflow {
	enable_subsecond_models true;
	deltamode_timestep 10 ms;
	line_capacitance true;
	all_powerflow_delta true;
	solver_method NR;
	maximum_voltage_error 1e-3;
};
module generators {
	enable_subsecond_models true;	//Enables deltamode for generator module
	deltamode_timestep 10.0 ms;	//Desired timestep for the generator module models
};

//include configurations
//#include "data_configurations_delta_123node.glm";

//Pure meters

object meter { 
    flags DELTAMODE;
    frequency_measure_type PLL;
 	object recorder {                            
		flags DELTAMODE;	//Must explicitly set the recorder to do deltamode
		file meters_outputs/meter3.csv;
		interval 1;	
		limit 100000000000;
		property measured_angle_A, measured_angle_B, measured_angle_C, measured_frequency_A, measured_frequency_B, measured_frequency_C, measured_frequency, measured_power.real, measured_power.imag, measured_power_A.real, measured_power_A.imag, measured_power_B.real, measured_power_B.imag, measured_power_C.real, measured_power_C.imag;
	};
	name meter_3;
	groupid metervolts;
	phases CN;
	nominal_voltage 2401.7771;
}

object meter { 
    flags DELTAMODE;
    frequency_measure_type PLL;
 	object recorder {                            
		flags DELTAMODE;	//Must explicitly set the recorder to do deltamode
		file meters_outputs/meter8.csv;
		interval 1;	
		limit 100000000000;
		property measured_angle_A, measured_angle_B, measured_angle_C, measured_frequency_A, measured_frequency_B, measured_frequency_C, measured_frequency, measured_power.real, measured_power.imag, measured_power_A.real, measured_power_A.imag, measured_power_B.real, measured_power_B.imag, measured_power_C.real, measured_power_C.imag;
	};
	name meter_8;
	groupid metervolts;
	phases ABCN;
	nominal_voltage 2401.7771;
}
object inverter {
	phases ABCN;
	parent meter_8;
	inverter_efficiency .95;
	rated_power 6000;	
        generator_mode CONSTANT_PF;
        generator_status ONLINE;
        inverter_type PWM; 
        flags DELTAMODE;
        dynamic_model_mode PID;
        inverter_convergence_criterion 0.001;
        power_factor 1.0;
        object solar {
	        phases ABCN;
	        generator_status ONLINE;
	        generator_mode SUPPLY_DRIVEN;
	        panel_type SINGLE_CRYSTAL_SILICON;
	        area 250 ft^2;
	        tilt_angle 47.0;
	        efficiency 0.135;
	};
}

object meter { 
    flags DELTAMODE;
    frequency_measure_type PLL;
 	object recorder {                            
		flags DELTAMODE;	//Must explicitly set the recorder to do deltamode
		file meters_outputs/meter13.csv;
		interval 1;	
		limit 100000000000;
		property measured_angle_A, measured_angle_B, measured_angle_C, measured_frequency_A, measured_frequency_B, measured_frequency_C, measured_frequency, measured_power.real, measured_power.imag, measured_power_A.real, measured_power_A.imag, measured_power_B.real, measured_power_B.imag, measured_power_C.real, measured_power_C.imag;
	};
	name meter_13;
	groupid metervolts;
	phases ABCN;
	nominal_voltage 2401.7771;
}

object meter { 
    flags DELTAMODE;
    frequency_measure_type PLL;
 	object recorder {                            
		flags DELTAMODE;	//Must explicitly set the recorder to do deltamode
		file meters_outputs/meter14.csv;
		interval 1;	
		limit 100000000000;
		property measured_angle_A, measured_angle_B, measured_angle_C, measured_frequency_A, measured_frequency_B, measured_frequency_C, measured_frequency, measured_power.real, measured_power.imag, measured_power_A.real, measured_power_A.imag, measured_power_B.real, measured_power_B.imag, measured_power_C.real, measured_power_C.imag;
	};
	name meter_14;
	groupid metervolts;
	phases AN;
	nominal_voltage 2401.7771;
}

object inverter {
	phases ABCN;
	parent meter_14;
	inverter_efficiency .95;
	rated_power 6000;	
        generator_mode CONSTANT_PF;
        generator_status ONLINE;
        inverter_type PWM; 
        flags DELTAMODE;
        dynamic_model_mode PID;
        inverter_convergence_criterion 0.001;
        power_factor 1.0;
        object solar {
	        phases ABCN;
	        generator_status ONLINE;
	        generator_mode SUPPLY_DRIVEN;
	        panel_type SINGLE_CRYSTAL_SILICON;
	        area 250 ft^2;
	        tilt_angle 47.0;
	        efficiency 0.135;
	};
}

object meter { 
    flags DELTAMODE;
    frequency_measure_type PLL;
 	object recorder {                            
		flags DELTAMODE;	//Must explicitly set the recorder to do deltamode
		file meters_outputs/meter15.csv;
		interval 1;	
		limit 100000000000;
		property measured_angle_A, measured_angle_B, measured_angle_C, measured_frequency_A, measured_frequency_B, measured_frequency_C, measured_frequency, measured_power.real, measured_power.imag, measured_power_A.real, measured_power_A.imag, measured_power_B.real, measured_power_B.imag, measured_power_C.real, measured_power_C.imag;
	};
	name meter_15;
	groupid metervolts;
	phases CN;
	nominal_voltage 2401.7771;
}

object inverter {
	phases ABCN;
	parent meter_15;
	inverter_efficiency .95;
	rated_power 6000;	
        generator_mode CONSTANT_PF;
        generator_status ONLINE;
        inverter_type PWM; 
        flags DELTAMODE;
        dynamic_model_mode PID;
        inverter_convergence_criterion 0.001;
        power_factor 1.0;
        object solar {
	        phases ABCN;
	        generator_status ONLINE;
	        generator_mode SUPPLY_DRIVEN;
	        panel_type SINGLE_CRYSTAL_SILICON;
	        area 250 ft^2;
	        tilt_angle 47.0;
	        efficiency 0.135;
	};
}

object meter { 
    flags DELTAMODE;
    frequency_measure_type PLL;
 	object recorder {                            
		flags DELTAMODE;	//Must explicitly set the recorder to do deltamode
		file meters_outputs/meter18.csv;
		interval 1;	
		limit 100000000000;
		property measured_angle_A, measured_angle_B, measured_angle_C, measured_frequency_A, measured_frequency_B, measured_frequency_C, measured_frequency, measured_power.real, measured_power.imag, measured_power_A.real, measured_power_A.imag, measured_power_B.real, measured_power_B.imag, measured_power_C.real, measured_power_C.imag;
	};
	name meter_18;
	groupid metervolts;
	phases ABCN;
	nominal_voltage 2401.7771;
}

object meter { 
    flags DELTAMODE;
    frequency_measure_type PLL;
 	object recorder {                            
		flags DELTAMODE;	//Must explicitly set the recorder to do deltamode
		file meters_outputs/meter21.csv;
		interval 1;	
		limit 100000000000;
		property measured_angle_A, measured_angle_B, measured_angle_C, measured_frequency_A, measured_frequency_B, measured_frequency_C, measured_frequency, measured_power.real, measured_power.imag, measured_power_A.real, measured_power_A.imag, measured_power_B.real, measured_power_B.imag, measured_power_C.real, measured_power_C.imag;
	};
	name meter_21;
	groupid metervolts;
	phases ABCN;
	nominal_voltage 2401.7771;
}

object inverter {
	phases ABCN;
	parent meter_21;
	inverter_efficiency .95;
	rated_power 6000;	
        generator_mode CONSTANT_PF;
        generator_status ONLINE;
        inverter_type PWM; 
        flags DELTAMODE;
        dynamic_model_mode PID;
        inverter_convergence_criterion 0.001;
        power_factor 1.0;
        object solar {
	        phases ABCN;
	        generator_status ONLINE;
	        generator_mode SUPPLY_DRIVEN;
	        panel_type SINGLE_CRYSTAL_SILICON;
	        area 250 ft^2;
	        tilt_angle 47.0;
	        efficiency 0.135;
	};
}


object meter { 
    flags DELTAMODE;
    frequency_measure_type PLL;
 	object recorder {                            
		flags DELTAMODE;	//Must explicitly set the recorder to do deltamode
		file meters_outputs/meter23.csv;
		interval 1;	
		limit 100000000000;
		property measured_angle_A, measured_angle_B, measured_angle_C, measured_frequency_A, measured_frequency_B, measured_frequency_C, measured_frequency, measured_power.real, measured_power.imag, measured_power_A.real, measured_power_A.imag, measured_power_B.real, measured_power_B.imag, measured_power_C.real, measured_power_C.imag;
	};
	name meter_23;
	groupid metervolts;
	phases ABCN;
	nominal_voltage 2401.7771;
}

object inverter {
	phases ABCN;
	parent meter_23;
	inverter_efficiency .95;
	rated_power 6000;	
        generator_mode CONSTANT_PF;
        generator_status ONLINE;
        inverter_type PWM; 
        flags DELTAMODE;
        dynamic_model_mode PID;
        inverter_convergence_criterion 0.001;
        power_factor 1.0;
        object solar {
	        phases ABCN;
	        generator_status ONLINE;
	        generator_mode SUPPLY_DRIVEN;
	        panel_type SINGLE_CRYSTAL_SILICON;
	        area 250 ft^2;
	        tilt_angle 47.0;
	        efficiency 0.135;
	};
}

object meter { 
    flags DELTAMODE;
    frequency_measure_type PLL;
 	object recorder {                            
		flags DELTAMODE;	//Must explicitly set the recorder to do deltamode
		file meters_outputs/meter25.csv;
		interval 1;	
		limit 100000000000;
		property measured_angle_A, measured_angle_B, measured_angle_C, measured_frequency_A, measured_frequency_B, measured_frequency_C, measured_frequency, measured_power.real, measured_power.imag, measured_power_A.real, measured_power_A.imag, measured_power_B.real, measured_power_B.imag, measured_power_C.real, measured_power_C.imag;
	};
	name meter_25;
	groupid metervolts;
	phases ABCN;
	nominal_voltage 2401.7771;
}
object inverter {
	phases ABCN;
	parent meter_25;
	inverter_efficiency .95;
	rated_power 6000;	
        generator_mode CONSTANT_PF;
        generator_status ONLINE;
        inverter_type PWM; 
        flags DELTAMODE;
        dynamic_model_mode PID;
        inverter_convergence_criterion 0.001;
        power_factor 1.0;
        object solar {
	        phases ABCN;
	        generator_status ONLINE;
	        generator_mode SUPPLY_DRIVEN;
	        panel_type SINGLE_CRYSTAL_SILICON;
	        area 250 ft^2;
	        tilt_angle 47.0;
	        efficiency 0.135;
	};
}

object meter { 
    flags DELTAMODE;
    frequency_measure_type PLL;
 	object recorder {                            
		flags DELTAMODE;	//Must explicitly set the recorder to do deltamode
		file meters_outputs/meter26.csv;
		interval 1;	
		limit 100000000000;
		property measured_angle_A, measured_angle_B, measured_angle_C, measured_frequency_A, measured_frequency_B, measured_frequency_C, measured_frequency, measured_power.real, measured_power.imag, measured_power_A.real, measured_power_A.imag, measured_power_B.real, measured_power_B.imag, measured_power_C.real, measured_power_C.imag;
	};
	name meter_26;
	groupid metervolts;
	phases ACN;
	nominal_voltage 2401.7771;
}

object meter { 
    flags DELTAMODE;
    frequency_measure_type PLL;
 	object recorder {                            
		flags DELTAMODE;	//Must explicitly set the recorder to do deltamode
		file meters_outputs/meter27.csv;
		interval 1;	
		limit 100000000000;
		property measured_angle_A, measured_angle_B, measured_angle_C, measured_frequency_A, measured_frequency_B, measured_frequency_C, measured_frequency, measured_power.real, measured_power.imag, measured_power_A.real, measured_power_A.imag, measured_power_B.real, measured_power_B.imag, measured_power_C.real, measured_power_C.imag;
	};
	name meter_27;
	groupid metervolts;
	phases ACN;
	nominal_voltage 2401.7771;
}
object inverter {
	phases ABCN;
	parent meter_27;
	inverter_efficiency .95;
	rated_power 6000;	
        generator_mode CONSTANT_PF;
        generator_status ONLINE;
        inverter_type PWM; 
        flags DELTAMODE;
        dynamic_model_mode PID;
        inverter_convergence_criterion 0.001;
        power_factor 1.0;
        object solar {
	        phases ABCN;
	        generator_status ONLINE;
	        generator_mode SUPPLY_DRIVEN;
	        panel_type SINGLE_CRYSTAL_SILICON;
	        area 250 ft^2;
	        tilt_angle 47.0;
	        efficiency 0.135;
	};
}


object meter { 
    flags DELTAMODE;
    frequency_measure_type PLL;
 	object recorder {                            
		flags DELTAMODE;	//Must explicitly set the recorder to do deltamode
		file meters_outputs/meter36.csv;
		interval 1;	
		limit 100000000000;
		property measured_angle_A, measured_angle_B, measured_angle_C, measured_frequency_A, measured_frequency_B, measured_frequency_C, measured_frequency, measured_power.real, measured_power.imag, measured_power_A.real, measured_power_A.imag, measured_power_B.real, measured_power_B.imag, measured_power_C.real, measured_power_C.imag;
	};
	name meter_36;
	groupid metervolts;
	phases ABN;
	nominal_voltage 2401.7771;
}
object inverter {
	phases ABCN;
	parent meter_36;
	inverter_efficiency .95;
	rated_power 6000;	
        generator_mode CONSTANT_PF;
        generator_status ONLINE;
        inverter_type PWM; 
        flags DELTAMODE;
        dynamic_model_mode PID;
        inverter_convergence_criterion 0.001;
        power_factor 1.0;
        object solar {
	        phases ABCN;
	        generator_status ONLINE;
	        generator_mode SUPPLY_DRIVEN;
	        panel_type SINGLE_CRYSTAL_SILICON;
	        area 250 ft^2;
	        tilt_angle 47.0;
	        efficiency 0.135;
	};
}

object meter { 
    flags DELTAMODE;
    frequency_measure_type PLL;
 	object recorder {                            
		flags DELTAMODE;	//Must explicitly set the recorder to do deltamode
		file meters_outputs/meter40.csv;
		interval 1;	
		limit 100000000000;
		property measured_angle_A, measured_angle_B, measured_angle_C, measured_frequency_A, measured_frequency_B, measured_frequency_C, measured_frequency, measured_power.real, measured_power.imag, measured_power_A.real, measured_power_A.imag, measured_power_B.real, measured_power_B.imag, measured_power_C.real, measured_power_C.imag;
	};
	name meter_40;
	groupid metervolts;
	phases ABCN;
	nominal_voltage 2401.7771;
}

object inverter {
	phases ABCN;
	parent meter_40;
	inverter_efficiency .95;
	rated_power 6000;	
        generator_mode CONSTANT_PF;
        generator_status ONLINE;
        inverter_type PWM; 
        flags DELTAMODE;
        dynamic_model_mode PID;
        inverter_convergence_criterion 0.001;
        power_factor 1.0;
        object solar {
	        phases ABCN;
	        generator_status ONLINE;
	        generator_mode SUPPLY_DRIVEN;
	        panel_type SINGLE_CRYSTAL_SILICON;
	        area 250 ft^2;
	        tilt_angle 47.0;
	        efficiency 0.135;
	};
}

object meter { 
    flags DELTAMODE;
    frequency_measure_type PLL;
 	object recorder {                            
		flags DELTAMODE;	//Must explicitly set the recorder to do deltamode
		file meters_outputs/meter44.csv;
		interval 1;	
		limit 100000000000;
		property measured_angle_A, measured_angle_B, measured_angle_C, measured_frequency_A, measured_frequency_B, measured_frequency_C, measured_frequency, measured_power.real, measured_power.imag, measured_power_A.real, measured_power_A.imag, measured_power_B.real, measured_power_B.imag, measured_power_C.real, measured_power_C.imag;
	};
	name meter_44;
	groupid metervolts;
	phases ABCN;
	nominal_voltage 2401.7771;
}
object inverter {
	phases ABCN;
	parent meter_44;
	inverter_efficiency .95;
	rated_power 6000;	
        generator_mode CONSTANT_PF;
        generator_status ONLINE;
        inverter_type PWM; 
        flags DELTAMODE;
        dynamic_model_mode PID;
        inverter_convergence_criterion 0.001;
        power_factor 1.0;
        object solar {
	        phases ABCN;
	        generator_status ONLINE;
	        generator_mode SUPPLY_DRIVEN;
	        panel_type SINGLE_CRYSTAL_SILICON;
	        area 250 ft^2;
	        tilt_angle 47.0;
	        efficiency 0.135;
	};
}


object meter { 
    flags DELTAMODE;
    frequency_measure_type PLL;
 	object recorder {                            
		flags DELTAMODE;	//Must explicitly set the recorder to do deltamode
		file meters_outputs/meter54.csv;
		interval 1;	
		limit 100000000000;
		property measured_angle_A, measured_angle_B, measured_angle_C, measured_frequency_A, measured_frequency_B, measured_frequency_C, measured_frequency, measured_power.real, measured_power.imag, measured_power_A.real, measured_power_A.imag, measured_power_B.real, measured_power_B.imag, measured_power_C.real, measured_power_C.imag;
	};
	name meter_54;
	groupid metervolts;
	phases ABCN;
	nominal_voltage 2401.7771;
}
object inverter {
	phases ABCN;
	parent meter_54;
	inverter_efficiency .95;
	rated_power 6000;	
        generator_mode CONSTANT_PF;
        generator_status ONLINE;
        inverter_type PWM; 
        flags DELTAMODE;
        dynamic_model_mode PID;
        inverter_convergence_criterion 0.001;
        power_factor 1.0;
        object solar {
	        phases ABCN;
	        generator_status ONLINE;
	        generator_mode SUPPLY_DRIVEN;
	        panel_type SINGLE_CRYSTAL_SILICON;
	        area 250 ft^2;
	        tilt_angle 47.0;
	        efficiency 0.135;
	};
}


object meter { 
    flags DELTAMODE;
    frequency_measure_type PLL;
 	object recorder {                            
		flags DELTAMODE;	//Must explicitly set the recorder to do deltamode
		file meters_outputs/meter57.csv;
		interval 1;	
		limit 100000000000;
		property measured_angle_A, measured_angle_B, measured_angle_C, measured_frequency_A, measured_frequency_B, measured_frequency_C, measured_frequency, measured_power.real, measured_power.imag, measured_power_A.real, measured_power_A.imag, measured_power_B.real, measured_power_B.imag, measured_power_C.real, measured_power_C.imag;
	};
	name meter_57;
	groupid metervolts;
	phases ABCN;
	nominal_voltage 2401.7771;
}
object inverter {
	phases ABCN;
	parent meter_57;
	inverter_efficiency .95;
	rated_power 6000;	
        generator_mode CONSTANT_PF;
        generator_status ONLINE;
        inverter_type PWM; 
        flags DELTAMODE;
        dynamic_model_mode PID;
        inverter_convergence_criterion 0.001;
        power_factor 1.0;
        object solar {
	        phases ABCN;
	        generator_status ONLINE;
	        generator_mode SUPPLY_DRIVEN;
	        panel_type SINGLE_CRYSTAL_SILICON;
	        area 250 ft^2;
	        tilt_angle 47.0;
	        efficiency 0.135;
	};
}


object meter { 
    flags DELTAMODE;
    frequency_measure_type PLL;
 	object recorder {                            
		flags DELTAMODE;	//Must explicitly set the recorder to do deltamode
		file meters_outputs/meter61.csv;
		interval 1;	
		limit 100000000000;
		property measured_angle_A, measured_angle_B, measured_angle_C, measured_frequency_A, measured_frequency_B, measured_frequency_C, measured_frequency, measured_power.real, measured_power.imag, measured_power_A.real, measured_power_A.imag, measured_power_B.real, measured_power_B.imag, measured_power_C.real, measured_power_C.imag;
	};
	name meter_61;
	groupid metervolts;
	phases ABCN;
	nominal_voltage 2401.7771;
}
object inverter {
	phases ABCN;
	parent meter_61;
	inverter_efficiency .95;
	rated_power 6000;	
        generator_mode CONSTANT_PF;
        generator_status ONLINE;
        inverter_type PWM; 
        flags DELTAMODE;
        dynamic_model_mode PID;
        inverter_convergence_criterion 0.001;
        power_factor 1.0;
        object solar {
	        phases ABCN;
	        generator_status ONLINE;
	        generator_mode SUPPLY_DRIVEN;
	        panel_type SINGLE_CRYSTAL_SILICON;
	        area 250 ft^2;
	        tilt_angle 47.0;
	        efficiency 0.135;
	};
}

object meter { 
    flags DELTAMODE;
    frequency_measure_type PLL;
 	object recorder {                            
		flags DELTAMODE;	//Must explicitly set the recorder to do deltamode
		file meters_outputs/meter67.csv;
		interval 1;	
		limit 100000000000;
		property measured_angle_A, measured_angle_B, measured_angle_C, measured_frequency_A, measured_frequency_B, measured_frequency_C, measured_frequency, measured_power.real, measured_power.imag, measured_power_A.real, measured_power_A.imag, measured_power_B.real, measured_power_B.imag, measured_power_C.real, measured_power_C.imag;
	};
	name meter_67;
	groupid metervolts;
	phases ABCN;
	nominal_voltage 2401.7771;
}

object meter { 
    flags DELTAMODE;
    frequency_measure_type PLL;
 	object recorder {                            
		flags DELTAMODE;	//Must explicitly set the recorder to do deltamode
		file meters_outputs/meter72.csv;
		interval 1;	
		limit 100000000000;
		property measured_angle_A, measured_angle_B, measured_angle_C, measured_frequency_A, measured_frequency_B, measured_frequency_C, measured_frequency, measured_power.real, measured_power.imag, measured_power_A.real, measured_power_A.imag, measured_power_B.real, measured_power_B.imag, measured_power_C.real, measured_power_C.imag;
	};
	name meter_72;
	groupid metervolts;
	phases ABCN;
	nominal_voltage 2401.7771;
}

object inverter {
	phases ABCN;
	parent meter_72;
	inverter_efficiency .95;
	rated_power 6000;	
        generator_mode CONSTANT_PF;
        generator_status ONLINE;
        inverter_type PWM; 
        flags DELTAMODE;
        dynamic_model_mode PID;
        inverter_convergence_criterion 0.001;
        power_factor 1.0;
        object solar {
	        phases ABCN;
	        generator_status ONLINE;
	        generator_mode SUPPLY_DRIVEN;
	        panel_type SINGLE_CRYSTAL_SILICON;
	        area 250 ft^2;
	        tilt_angle 47.0;
	        efficiency 0.135;
	};
}

object meter { 
    flags DELTAMODE;
    frequency_measure_type PLL;
 	object recorder {                            
		flags DELTAMODE;	//Must explicitly set the recorder to do deltamode
		file meters_outputs/meter78.csv;
		interval 1;	
		limit 100000000000;
		property measured_angle_A, measured_angle_B, measured_angle_C, measured_frequency_A, measured_frequency_B, measured_frequency_C, measured_frequency, measured_power.real, measured_power.imag, measured_power_A.real, measured_power_A.imag, measured_power_B.real, measured_power_B.imag, measured_power_C.real, measured_power_C.imag;
	};
	name meter_78;
	groupid metervolts;
	phases ABCN;
	nominal_voltage 2401.7771;
}
object inverter {
	phases ABCN;
	parent meter_78;
	inverter_efficiency .95;
	rated_power 6000;	
        generator_mode CONSTANT_PF;
        generator_status ONLINE;
        inverter_type PWM; 
        flags DELTAMODE;
        dynamic_model_mode PID;
        inverter_convergence_criterion 0.001;
        power_factor 1.0;
        object solar {
	        phases ABCN;
	        generator_status ONLINE;
	        generator_mode SUPPLY_DRIVEN;
	        panel_type SINGLE_CRYSTAL_SILICON;
	        area 250 ft^2;
	        tilt_angle 47.0;
	        efficiency 0.135;
	};
}

object meter { 
    flags DELTAMODE;
    frequency_measure_type PLL;
 	object recorder {                            
		flags DELTAMODE;	//Must explicitly set the recorder to do deltamode
		file meters_outputs/meter81.csv;
		interval 1;	
		limit 100000000000;
		property measured_angle_A, measured_angle_B, measured_angle_C, measured_frequency_A, measured_frequency_B, measured_frequency_C, measured_frequency, measured_power.real, measured_power.imag, measured_power_A.real, measured_power_A.imag, measured_power_B.real, measured_power_B.imag, measured_power_C.real, measured_power_C.imag;
	};
	name meter_81;
	groupid metervolts;
	phases ABCN;
	nominal_voltage 2401.7771;
}
object inverter {
	phases ABCN;
	parent meter_81;
	inverter_efficiency .95;
	rated_power 6000;	
        generator_mode CONSTANT_PF;
        generator_status ONLINE;
        inverter_type PWM; 
        flags DELTAMODE;
        dynamic_model_mode PID;
        inverter_convergence_criterion 0.001;
        power_factor 1.0;
        object solar {
	        phases ABCN;
	        generator_status ONLINE;
	        generator_mode SUPPLY_DRIVEN;
	        panel_type SINGLE_CRYSTAL_SILICON;
	        area 250 ft^2;
	        tilt_angle 47.0;
	        efficiency 0.135;
	};
}

object meter { 
    flags DELTAMODE;
    frequency_measure_type PLL;
 	object recorder {                            
		flags DELTAMODE;	//Must explicitly set the recorder to do deltamode
		file meters_outputs/meter89.csv;
		interval 1;	
		limit 100000000000;
		property measured_angle_A, measured_angle_B, measured_angle_C, measured_frequency_A, measured_frequency_B, measured_frequency_C, measured_frequency, measured_power.real, measured_power.imag, measured_power_A.real, measured_power_A.imag, measured_power_B.real, measured_power_B.imag, measured_power_C.real, measured_power_C.imag;
	};
	name meter_89;
	groupid metervolts;
	phases ABCN;
	nominal_voltage 2401.7771;
}
object inverter {
	phases ABCN;
	parent meter_89;
	inverter_efficiency .95;
	rated_power 6000;	
        generator_mode CONSTANT_PF;
        generator_status ONLINE;
        inverter_type PWM; 
        flags DELTAMODE;
        dynamic_model_mode PID;
        inverter_convergence_criterion 0.001;
        power_factor 1.0;
        object solar {
	        phases ABCN;
	        generator_status ONLINE;
	        generator_mode SUPPLY_DRIVEN;
	        panel_type SINGLE_CRYSTAL_SILICON;
	        area 250 ft^2;
	        tilt_angle 47.0;
	        efficiency 0.135;
	};
}


object meter { 
    flags DELTAMODE;
    frequency_measure_type PLL;
 	object recorder {                            
		flags DELTAMODE;	//Must explicitly set the recorder to do deltamode
		file meters_outputs/meter91.csv;
		interval 1;	
		limit 100000000000;
		property measured_angle_A, measured_angle_B, measured_angle_C, measured_frequency_A, measured_frequency_B, measured_frequency_C, measured_frequency, measured_power.real, measured_power.imag, measured_power_A.real, measured_power_A.imag, measured_power_B.real, measured_power_B.imag, measured_power_C.real, measured_power_C.imag;
	};
	name meter_91;
	groupid metervolts;
	phases ABCN;
	nominal_voltage 2401.7771;
}


object meter { 
    flags DELTAMODE;
    frequency_measure_type PLL;
 	object recorder {                            
		flags DELTAMODE;	//Must explicitly set the recorder to do deltamode
		file meters_outputs/meter93.csv;
		interval 1;	
		limit 100000000000;
		property measured_angle_A, measured_angle_B, measured_angle_C, measured_frequency_A, measured_frequency_B, measured_frequency_C, measured_frequency, measured_power.real, measured_power.imag, measured_power_A.real, measured_power_A.imag, measured_power_B.real, measured_power_B.imag, measured_power_C.real, measured_power_C.imag;
	};
	name meter_93;
	groupid metervolts;
	phases ABCN;
	nominal_voltage 2401.7771;
}

object inverter {
	phases ABCN;
	parent meter_93;
	inverter_efficiency .95;
	rated_power 6000;	
        generator_mode CONSTANT_PF;
        generator_status ONLINE;
        inverter_type PWM; 
        flags DELTAMODE;
        dynamic_model_mode PID;
        inverter_convergence_criterion 0.001;
        power_factor 1.0;
        object solar {
	        phases ABCN;
	        generator_status ONLINE;
	        generator_mode SUPPLY_DRIVEN;
	        panel_type SINGLE_CRYSTAL_SILICON;
	        area 250 ft^2;
	        tilt_angle 47.0;
	        efficiency 0.135;
	};
}

object meter { 
    flags DELTAMODE;
    frequency_measure_type PLL;
 	object recorder {                            
		flags DELTAMODE;	//Must explicitly set the recorder to do deltamode
		file meters_outputs/meter97.csv;
		interval 1;	
		limit 100000000000;
		property measured_angle_A, measured_angle_B, measured_angle_C, measured_frequency_A, measured_frequency_B, measured_frequency_C, measured_frequency, measured_power.real, measured_power.imag, measured_power_A.real, measured_power_A.imag, measured_power_B.real, measured_power_B.imag, measured_power_C.real, measured_power_C.imag;
	};
	name meter_97;
	groupid metervolts;
	phases ABCN;
	nominal_voltage 2401.7771;
}
object inverter {
	phases ABCN;
	parent meter_97;
	inverter_efficiency .95;
	rated_power 6000;	
        generator_mode CONSTANT_PF;
        generator_status ONLINE;
        inverter_type PWM; 
        flags DELTAMODE;
        dynamic_model_mode PID;
        inverter_convergence_criterion 0.001;
        power_factor 1.0;
        object solar {
	        phases ABCN;
	        generator_status ONLINE;
	        generator_mode SUPPLY_DRIVEN;
	        panel_type SINGLE_CRYSTAL_SILICON;
	        area 250 ft^2;
	        tilt_angle 47.0;
	        efficiency 0.135;
	};
}

object meter { 
    flags DELTAMODE;
    frequency_measure_type PLL;
 	object recorder {                            
		flags DELTAMODE;	//Must explicitly set the recorder to do deltamode
		file meters_outputs/meter101.csv;
		interval 1;	
		limit 100000000000;