//123-node generated by script
//Deltamode components added in
//Used to test various powerflow components in deltamode
//Modified from base version for this testing purpose

//#set pauseatexit=1
#set relax_naming_rules=1
clock {
	timezone "PST+8PDT";
	starttime '2010-01-01 12:00:00 PST';
	stoptime '2010-01-01 12:10:00 PST';
}

#set suppress_repeat_messages=1
#set profiler=1
#set double_format=%+.12lg
#set complex_format=%+.12lg%+.12lg%c

//Deltamode declarations - global values
#set deltamode_maximumtime=5000000000000
#set deltamode_iteration_limit=10		//Iteration limit

module tape;

module powerflow {
	enable_subsecond_models true;
	deltamode_timestep 10 ms;
	line_capacitance true;
	all_powerflow_delta true;
	solver_method NR;
	maximum_voltage_error 1e-3;
};

//include configurations
//#include "data_configurations_delta_123node.glm";

//Pure nodes

object node {
	name node_3;
	groupid nodevolts;
	phases CN;
	nominal_voltage 2401.7771;
}

object node {
	name node_8;
	groupid nodevolts;
	phases ABCN;
	nominal_voltage 2401.7771;
}

object node {
	name node_13;
	groupid nodevolts;
	phases ABCN;
	nominal_voltage 2401.7771;
}

object node {
	name node_14;
	groupid nodevolts;
	phases AN;
	nominal_voltage 2401.7771;
}

object node {
	name node_15;
	groupid nodevolts;
	phases CN;
	nominal_voltage 2401.7771;
}

object node {
	name node_18;
	groupid nodevolts;
	phases ABCN;
	nominal_voltage 2401.7771;
}

object node {
	name node_21;
	groupid nodevolts;
	phases ABCN;
	nominal_voltage 2401.7771;
}

object node {
	name node_23;
	groupid nodevolts;
	phases ABCN;
	nominal_voltage 2401.7771;
}

object node {
	name node_25;
	groupid nodevolts;
	phases ABCN;
	nominal_voltage 2401.7771;
}

object node {
	name node_26;
	groupid nodevolts;
	phases ACN;
	nominal_voltage 2401.7771;
}

object node {
	name node_27;
	groupid nodevolts;
	phases ACN;
	nominal_voltage 2401.7771;
}

object node {
	name node_36;
	groupid nodevolts;
	phases ABN;
	nominal_voltage 2401.7771;
}

object node {
	name node_40;
	groupid nodevolts;
	phases ABCN;
	nominal_voltage 2401.7771;
}

object node {
	name node_44;
	groupid nodevolts;
	phases ABCN;
	nominal_voltage 2401.7771;
}

object node {
	name node_54;
	groupid nodevolts;
	phases ABCN;
	nominal_voltage 2401.7771;
}

object node {
	name node_57;
	groupid nodevolts;
	phases ABCN;
	nominal_voltage 2401.7771;
}

object node {
	name node_61;
	groupid nodevolts;
	phases ABCN;
	nominal_voltage 2401.7771;
}

object node {
	name node_67;
	groupid nodevolts;
	phases ABCN;
	nominal_voltage 2401.7771;
}

object node {
	name node_72;
	groupid nodevolts;
	phases ABCN;
	nominal_voltage 2401.7771;
}

object node {
	name node_78;
	groupid nodevolts;
	phases ABCN;
	nominal_voltage 2401.7771;
}

object node {
	name node_81;
	groupid nodevolts;
	phases ABCN;
	nominal_voltage 2401.7771;
}

object node {
	name node_89;
	groupid nodevolts;
	phases ABCN;
	nominal_voltage 2401.7771;
}

object node {
	name node_91;
	groupid nodevolts;
	phases ABCN;
	nominal_voltage 2401.7771;
}

object node {
	name node_93;
	groupid nodevolts;
	phases ABCN;
	nominal_voltage 2401.7771;
}

object node {
	name node_97;
	groupid nodevolts;
	phases ABCN;
	nominal_voltage 2401.7771;
}

object node {
	name node_101;
	groupid nodevolts;
	phases ABCN;
	nominal_voltage 2401.7771;
}

object node {
	name node_105;
	groupid nodevolts;
	phases ABCN;
	nominal_voltage 2401.7771;
}

object node {
	name node_108;
	groupid nodevolts;
	phases ABCN;
	nominal_voltage 2401.7771;
}

object node {
	name node_110;
	groupid nodevolts;
	phases AN;
	nominal_voltage 2401.7771;
}

object node {
	name node_135;
	groupid nodevolts;
	phases ABCN;
	nominal_voltage 2401.7771;
}

object node {
	name node_149;
	groupid nodevolts;
	phases ABCN;
	nominal_voltage 2401.7771;
}

object meter {
	name node_150;
	groupid nodevolts;
	phases ABCN;
	nominal_voltage 2401.7771;
	bustype SWING;
	voltage_A 2401.777120+0.000000j;
	voltage_B -1200.888560-2080.000000j;
	voltage_C -1200.888560+2080.000000j;
	object recorder {
		flags DELTAMODE;
		property measured_power.real,measured_power.imag;
		file testpowermeas.csv;
		interval 1;
	};
}

object node {
	name node_151;
	groupid nodevolts;
	phases ABCN;
	nominal_voltage 2401.7771;
}

object node {
	name node_152;
	groupid nodevolts;
	phases ABCN;
	nominal_voltage 2401.7771;
}

object node {
	name node_160;
	groupid nodevolts;
	phases ABCN;
	nominal_voltage 2401.7771;
}

object node {
	name node_197;
	groupid nodevolts;
	phases ABCN;
	nominal_voltage 2401.7771;
}

object node {
	name node_250;
	groupid nodevolts;
	phases ABCN;
	nominal_voltage 2401.7771;
}

object node {
	name node_300;
	groupid nodevolts;
	phases ABCN;
	nominal_voltage 2401.7771;
}

object node {
	name node_450;
	groupid nodevolts;
	phases ABCN;
	nominal_voltage 2401.7771;
}

object node {
	name node_610;
	groupid nodevolts;
	phases ABCN;
	nominal_voltage 2401.7771;
}

object node {
	name node_901;
	groupid nodevolts;
	phases AN;
	nominal_voltage 2401.7771;
}

object node {
	name node_2501;
	groupid nodevolts;
	phases ACN;
	nominal_voltage 2401.7771;
}

object node {
	name node_6101;
	groupid nodevolts;
	phases ABCN;
	nominal_voltage 2401.7771;
}

object node {
	name node_15001;
	groupid nodevolts;
	phases ABCN;
	nominal_voltage 2401.7771;
}

object node {
	name node_16001;
	groupid nodevolts;
	phases ABCN;
	nominal_voltage 2401.7771;
}

//Pure spot loads

object load {
	name 01;
	groupid nodevolts;
	phases ABCN;
	constant_power_A 40000.000000+20000.000000j;
	nominal_voltage 2401.7771;
}

object load {
	name 02;
	groupid nodevolts;
	phases BN;
	constant_power_B 20000.000000+10000.000000j;
	nominal_voltage 2401.7771;
}

object load {
	name 04;
	groupid nodevolts;
	phases CN;
	constant_power_C 40000.000000+20000.000000j;
	nominal_voltage 2401.7771;
}

object load {
	name 05;
	groupid nodevolts;
	phases CN;
	constant_current_C -0.557814+9.293330j;
	nominal_voltage 2401.7771;
}

object load {
	name 06;
	groupid nodevolts;
	phases CN;
	constant_impedance_C 115.370667+57.685333j;
	nominal_voltage 2401.7771;
}

object load {
	name 07;
	groupid nodevolts;
	phases ABCN;
	constant_power_A 20000.000000+10000.000000j;
	nominal_voltage 2401.7771;
}

object load {
	name 09;
	groupid nodevolts;
	phases AN;
	constant_power_A 40000.000000+20000.000000j;
	nominal_voltage 2401.7771;
}

object load {
	name 010;
	groupid nodevolts;
	phases AN;
	constant_current_A 8.327167-4.163584j;
	nominal_voltage 2401.7771;
}

object load {
	name 011;
	groupid nodevolts;
	phases AN;
	constant_impedance_A 115.370667+57.685333j;
	nominal_voltage 2401.7771;
}

object load {
	name 012;
	groupid nodevolts;
	phases BN;
	constant_power_B 20000.000000+10000.000000j;
	nominal_voltage 2401.7771;
}

object load {
	name 016;
	groupid nodevolts;
	phases CN;
	constant_power_C 40000.000000+20000.000000j;
	nominal_voltage 2401.7771;
}

object load {
	name 017;
	groupid nodevolts;
	phases CN;
	constant_power_C 20000.000000+10000.000000j;
	nominal_voltage 2401.7771;
}

object load {
	name 019;
	groupid nodevolts;
	phases AN;
	constant_power_A 40000.000000+20000.000000j;
	nominal_voltage 2401.7771;
}

object load {
	name 020;
	groupid nodevolts;
	phases AN;
	constant_current_A 16.654335-8.327167j;
	nominal_voltage 2401.7771;
}

object load {
	name 022;
	groupid nodevolts;
	phases BN;
	constant_impedance_B 115.370667+57.685333j;
	nominal_voltage 2401.7771;
}

object load {
	name 024;
	groupid nodevolts;
	phases CN;
	constant_power_C 40000.000000+20000.000000j;
	nominal_voltage 2401.7771;
}

object load {
	name 028;
	groupid nodevolts;
	phases ABCN;
	constant_current_A 16.654335-8.327167j;
	nominal_voltage 2401.7771;
}

object load {
	name 029;
	groupid nodevolts;
	phases ABCN;
	constant_impedance_A 115.370667+57.685333j;
	nominal_voltage 2401.7771;
}

object load {
	name 030;
	groupid nodevolts;
	phases ABCN;
	constant_power_C 40000.000000+20000.000000j;
	nominal_voltage 2401.7771;
}

object load {
	name 031;
	groupid nodevolts;
	phases CN;
	constant_power_C 20000.000000+10000.000000j;
	nominal_voltage 2401.7771;
}

object load {
	name 032;
	groupid nodevolts;
	phases CN;
	constant_power_C 20000.000000+10000.000000j;
	nominal_voltage 2401.7771;
}

object load {
	name 033;
	groupid nodevolts;
	phases AN;
	constant_current_A 16.654335-8.327167j;
	nominal_voltage 2401.7771;
}

object load {
	name 034;
	groupid nodevolts;
	phases CN;
	constant_impedance_C 115.370667+57.685333j;
	nominal_voltage 2401.7771;
}

object load {
	name 035;
	groupid nodevolts;
	phases ABCD;
	constant_power_A 40000.000000+20000.000000j;
	nominal_voltage 2401.7771;
}

object load {
	name 037;
	groupid nodevolts;
	phases AN;
	constant_impedance_A 115.370667+57.685333j;
	nominal_voltage 2401.7771;
}

object load {
	name 038;
	groupid nodevolts;
	phases BN;
	constant_current_B -7.769353-5.129747j;
	nominal_voltage 2401.7771;
}

object load {
	name 039;
	groupid nodevolts;
	phases BN;
	constant_power_B 20000.000000+10000.000000j;
	nominal_voltage 2401.7771;
}

object load {
	name 041;
	groupid nodevolts;
	phases CN;
	constant_power_C 20000.000000+10000.000000j;
	nominal_voltage 2401.7771;
}

object load {
	name 042;
	groupid nodevolts;
	phases ABCN;
	constant_power_A 20000.000000+10000.000000j;
	nominal_voltage 2401.7771;
}

object load {
	name 043;
	groupid nodevolts;
	phases BN;
	constant_impedance_B 115.370667+57.685333j;
	nominal_voltage 2401.7771;
}

object load {
	name 045;
	groupid nodevolts;
	phases AN;
	constant_current_A 8.327167-4.163584j;
	nominal_voltage 2401.7771;
}

object load {
	name 046;
	groupid nodevolts;
	phases AN;
	constant_power_A 20000.000000+10000.000000j;
	nominal_voltage 2401.7771;
}

object load {
	name 047;
	groupid nodevolts;
	phases ABCN;
	constant_current_A 14.572543-10.408959j;
	constant_current_B -16.300695-7.415713j;
	constant_current_C 1.728152+17.824672j;
	nominal_voltage 2401.7771;
}

object load {
	name 048;
	groupid nodevolts;
	phases ABCN;
	constant_impedance_A 54.567207+38.976577j;
	constant_impedance_B 54.567207+38.976577j;
	constant_impedance_C 54.567207+38.976577j;
	nominal_voltage 2401.7771;
}

object load {
	name 049;
	groupid nodevolts;
	phases ABCN;
	constant_power_A 35000.000000+25000.000000j;
	constant_power_B 70000.000000+50000.000000j;
	constant_power_C 35000.000000+20000.000000j;
	nominal_voltage 2401.7771;
	// object recorder {
		// flags DELTAMODE;
		// property "voltage_A,voltage_B,voltage_C";
		// interval 1;
		// file 0voltage_output.csv;
	// };
}

object load {
	name 050;
	groupid nodevolts;
	phases ABCN;
	constant_power_C 40000.000000+20000.000000j;
	nominal_voltage 2401.7771;
}

object load {
	name 051;
	groupid nodevolts;
	phases ABCN;
	constant_power_A 20000.000000+10000.000000j;
	nominal_voltage 2401.7771;
}

object load {
	name 052;
	groupid nodevolts;
	phases ABCN;
	constant_power_A 40000.000000+20000.000000j;
	nominal_voltage 2401.7771;
}

object load {
	name 053;
	groupid nodevolts;
	phases ABCN;
	constant_power_A 40000.000000+20000.000000j;
	nominal_voltage 2401.7771;
}

object load {
	name 055;
	groupid nodevolts;
	phases ABCN;
	constant_impedance_A 230.741333+115.370667j;
	nominal_voltage 2401.7771;
}

object load {
	name 056;
	groupid nodevolts;
	phases ABCN;
	constant_power_B 20000.000000+10000.000000j;
	nominal_voltage 2401.7771;
}

object load {
	name 058;
	groupid nodevolts;
	phases BN;
	constant_current_B -7.769353-5.129747j;
	nominal_voltage 2401.7771;
}

object load {
	name 059;
	groupid nodevolts;
	phases BN;
	constant_power_B 20000.000000+10000.000000j;
	nominal_voltage 2401.7771;
}

object load {
	name 060;
	groupid nodevolts;
	phases ABCN;
	constant_power_A 20000.000000+10000.000000j;
	nominal_voltage 2401.7771;
}

object load {
	name 062;
	groupid nodevolts;
	phases ABCN;
	constant_impedance_C 115.370667+57.685333j;
	nominal_voltage 2401.7771;
}

object load {
	name 063;
	groupid nodevolts;
	phases ABCN;
	constant_power_A 40000.000000+20000.000000j;
	nominal_voltage 2401.7771;
}

object load {
	name 064;
	groupid nodevolts;
	phases ABCN;
	constant_current_B -28.233631-19.756998j;
	nominal_voltage 2401.7771;
}

object load {
	name 065;
	groupid nodevolts;
	phases ABCD;
	constant_impedance_A 327.403243+233.859459j;
	constant_impedance_B 327.403243+233.859459j;
	constant_impedance_C 163.701622+116.929730j;
	nominal_voltage 2401.7771;
}

object load {
	name 066;
	groupid nodevolts;
	phases ABCN;
	constant_power_C 75000.000000+35000.000000j;
	nominal_voltage 2401.7771;
}

object load {
	name 068;
	groupid nodevolts;
	phases AN;
	constant_power_A 20000.000000+10000.000000j;
	nominal_voltage 2401.7771;
}

object load {
	name 069;
	groupid nodevolts;
	phases AN;
	constant_power_A 40000.000000+20000.000000j;
	nominal_voltage 2401.7771;
}

object load {
	name 070;
	groupid nodevolts;
	phases AN;
	constant_power_A 20000.000000+10000.000000j;
	nominal_voltage 2401.7771;
}

object load {
	name 071;
	groupid nodevolts;
	phases AN;
	constant_power_A 40000.000000+20000.000000j;
	nominal_voltage 2401.7771;
}

object load {
	name 073;
	groupid nodevolts;
	phases CN;
	constant_power_C 40000.000000+20000.000000j;
	nominal_voltage 2401.7771;
}

object load {
	name 074;
	groupid nodevolts;
	phases CN;
	constant_impedance_C 115.370667+57.685333j;
	nominal_voltage 2401.7771;
}

object load {
	name 075;
	groupid nodevolts;
	phases CN;
	constant_power_C 40000.000000+20000.000000j;
	nominal_voltage 2401.7771;
}

object load {
	name 076;
	groupid nodevolts;
	phases ABCD;
	constant_current_A 31.474199-4.034142j;
	constant_current_B -12.019231-16.826923j;
	constant_current_C -8.562927+18.822421j;
	nominal_voltage 2401.7771;
}

object load {
	name 077;
	groupid nodevolts;
	phases ABCN;
	constant_power_B 40000.000000+20000.000000j;
	nominal_voltage 2401.7771;
}

object load {
	name 079;
	groupid nodevolts;
	phases ABCN;
	constant_impedance_A 115.370667+57.685333j;
	nominal_voltage 2401.7771;
}

object load {
	name 080;
	groupid nodevolts;
	phases ABCN;
	constant_power_B 40000.000000+20000.000000j;
	nominal_voltage 2401.7771;
}

object load {
	name 082;
	groupid nodevolts;
	phases ABCN;
	constant_power_A 40000.000000+20000.000000j;
	nominal_voltage 2401.7771;
}

object load {
	name 083;
	groupid nodevolts;
	phases ABCN;
	constant_power_C 20000.000000+10000.000000j;
	nominal_voltage 2401.7771;
}

object load {
	name 084;
	groupid nodevolts;
	phases CN;
	constant_power_C 20000.000000+10000.000000j;
	nominal_voltage 2401.7771;
}

object load {
	name 085;
	groupid nodevolts;
	phases CN;
	constant_power_C 40000.000000+20000.000000j;
	nominal_voltage 2401.7771;
}

object load {
	name 086;
	groupid nodevolts;
	phases ABCN;
	constant_power_B 20000.000000+10000.000000j;
	nominal_voltage 2401.7771;
}

object load {
	name 087;
	groupid nodevolts;
	phases ABCN;
	constant_power_B 40000.000000+20000.000000j;
	nominal_voltage 2401.7771;
}

object load {
	name 088;
	groupid nodevolts;
	phases AN;
	constant_power_A 40000.000000+20000.000000j;
	nominal_voltage 2401.7771;
}

object load {
	name 090;
	groupid nodevolts;
	phases BN;
	constant_current_B -15.538706-10.259493j;
	nominal_voltage 2401.7771;
}

object load {
	name 092;
	groupid nodevolts;
	phases CN;
	constant_power_C 40000.000000+20000.000000j;
	nominal_voltage 2401.7771;
}

object load {
	name 094;
	groupid nodevolts;
	phases AN;
	constant_power_A 40000.000000+20000.000000j;
	nominal_voltage 2401.7771;
}

object load {
	name 095;
	groupid nodevolts;
	phases ABCN;
	constant_power_B 20000.000000+10000.000000j;
	nominal_voltage 2401.7771;
}

object load {
	name 096;
	groupid nodevolts;
	phases BN;
	constant_power_B 20000.000000+10000.000000j;
	nominal_voltage 2401.7771;
}

object load {
	name 098;
	groupid nodevolts;
	phases ABCN;
	constant_power_A 40000.000000+20000.000000j;
	nominal_voltage 2401.7771;
}

object load {
	name 099;
	groupid nodevolts;
	phases ABCN;
	constant_power_B 40000.000000+20000.000000j;
	nominal_voltage 2401.7771;
}

object load {
	name 0100;
	groupid nodevolts;
	phases ABCN;
	constant_impedance_C 115.370667+57.685333j;
	nominal_voltage 2401.7771;
}

object load {
	name 0102;
	groupid nodevolts;
	phases CN;
	constant_power_C 20000.000000+10000.000000j;
	nominal_voltage 2401.7771;
}

object load {
	name 0103;
	groupid nodevolts;
	phases CN;
	constant_power_C 40000.000000+20000.000000j;
	nominal_voltage 2401.7771;
}

object load {
	name 0104;
	groupid nodevolts;
	phases CN;
	constant_power_C 40000.000000+20000.000000j;
	nominal_voltage 2401.7771;
}

object load {
	name 0106;
	groupid nodevolts;
	phases BN;
	constant_power_B 40000.000000+20000.000000j;
	nominal_voltage 2401.7771;
}

object load {
	name 0107;
	groupid nodevolts;
	phases BN;
	constant_power_B 40000.000000+20000.000000j;
	nominal_voltage 2401.7771;
}

object load {
	name 0109;
	groupid nodevolts;
	phases AN;
	constant_power_A 40000.000000+20000.000000j;
	nominal_voltage 2401.7771;
}

object load {
	name 0111;
	groupid nodevolts;
	phases AN;
	constant_power_A 20000.000000+10000.000000j;
	nominal_voltage 2401.7771;
}

object load {
	name 0112;
	groupid nodevolts;
	phases AN;
	constant_current_A 8.327167-4.163584j;
	nominal_voltage 2401.7771;
}

object load {
	name 0113;
	groupid nodevolts;
	phases AN;
	constant_impedance_A 115.370667+57.685333j;
	nominal_voltage 2401.7771;
}

object load {
	name 0114;
	groupid nodevolts;
	phases AN;
	constant_power_A 20000.000000+10000.000000j;
	nominal_voltage 2401.7771;
}

//Triplex nodes/meters/loads
object triplex_node {
	name spct_node;
	phases BS;
	nominal_voltage 120.0;
}

object triplex_meter {
	name triplex_meter_node;
	phases BS;
	nominal_voltage 120.0;
	// object recorder {
		// flags DELTAMODE;
		// property "voltage_1,voltage_2,voltage_12,measured_power";
		// interval 1;
		// file triplex0voltage_output.csv;
	// };
}

object triplex_load {
	name triplex_0device;
	phases BS;
	nominal_voltage 120.0;
	constant_power_12 3500.000000+2500.000000j;
}

//SPCT transformer
object transformer {
	name spct_transformer_triplex;
	phases BS;
	from node_610;
	to spct_node;
	configuration spct_config_B;
}

//Triplex lines
object triplex_line {
	phases BS;
	name SPCT_to_meter;
	from spct_node;
	to triplex_meter_node;
	length 50.0 ft;
	configuration tplex_line_cfg;
}

object triplex_line {
	phases BS;
	name meter_to_load;
	from triplex_meter_node;
	to triplex_0device;
	length 25.0 ft;
	configuration tplex_line_cfg;
}

//distributed loads intermediates (2/3 load at 1/4 line)

//pure distributed loads (1/3 load at end of line)

//combination loads (1/3 dist load and spot load)

//Pure lines (no distributed loads)

object overhead_line {
	name line1to2;
	phases BN;
	from 01;
	to 02;
	length 175.00;
	configuration lc310;
}

object overhead_line {
	name line1to3;
	phases CN;
	from 01;
	to node_3;
	length 250.00;
	configuration lc311;
}

object overhead_line {
	name line1to7;
	phases ABCN;
	from 01;
	to 07;
	length 300.00;
	configuration lc301;
}

object overhead_line {
	name line3to4;
	phases CN;
	from node_3;
	to 04;
	length 200.00;
	configuration lc311;
}

object overhead_line {
	name line3to5;
	phases CN;
	from node_3;
	to 05;
	length 325.00;
	configuration lc311;
}

object overhead_line {
	name line5to6;
	phases CN;
	from 05;
	to 06;
	length 250.00;
	configuration lc311;
}

object overhead_line {
	name line7to8;
	phases ABCN;
	from 07;
	to node_8;
	length 200.00;
	configuration lc301;
}

object overhead_line {
	name line8to12;
	phases BN;
	from node_8;
	to 012;
	length 225.00;
	configuration lc310;
}

object overhead_line {
	name line8to9;
	phases AN;
	from node_8;
	to 09;
	length 225.00;
	configuration lc309;
}

object overhead_line {
	name line8to13;
	phases ABCN;
	from node_8;
	to node_13;
	length 300.00;
	configuration lc301;
}

object overhead_line {
	name line901to14;
	phases AN;
	from node_901;
	to node_14;
	length 425.00;
	configuration lc309;
}

object overhead_line {
	name line13to34;
	phases CN;
	from node_13;
	to 034;
	length 150.00;
	configuration lc311;
}

object overhead_line {
	name line13to18;
	phases ABCN;
	from node_13;
	to node_18;
	length 825.00;
	configuration lc302;
}

object overhead_line {
	name line14to11;
	phases AN;
	from node_14;
	to 011;
	length 250.00;
	configuration lc309;
}

object overhead_line {
	name line14to10;
	phases AN;
	from node_14;
	to 010;
	length 250.00;
	configuration lc309;
}

object overhead_line {
	name line15to16;
	phases CN;
	from node_15;
	to 016;
	length 375.00;
	configuration lc311;
}

object overhead_line {
	name line15to17;
	phases CN;
	from node_15;
	to 017;
	length 350.00;
	configuration lc311;
}

object overhead_line {
	name line18to19;
	phases AN;
	from node_18;
	to 019;
	length 250.00;
	configuration lc309;
}

object overhead_line {
	name line18to21;
	phases ABCN;
	from node_18;
	to node_21;
	length 300.00;
	configuration lc302;
}

object overhead_line {
	name line19to20;
	phases AN;
	from 019;
	to 020;
	length 325.00;
	configuration lc309;
}

object overhead_line {
	name line21to22;
	phases BN;
	from node_21;
	to 022;
	length 525.00;
	configuration lc310;
}

object overhead_line {
	name line21to23;
	phases ABCN;
	from node_21;
	to node_23;
	length 250.00;
	configuration lc302;
}

object overhead_line {
	name line23to24;
	phases CN;
	from node_23;
	to 024;
	length 550.00;
	configuration lc311;
}

object overhead_line {
	name line23to25;
	phases ABCN;
	from node_23;
	to node_25;
	length 275.00;
	configuration lc302;
}

object overhead_line {
	name line2501to26;
	phases ACN;
	from node_2501;
	to node_26;
	length 350.00;
	configuration lc307;
}

object overhead_line {
	name line25to28;
	phases ABCN;
	from node_25;
	to 028;
	length 200.00;
	configuration lc302;
}

object overhead_line {
	name line26to27;
	phases ACN;
	from node_26;
	to node_27;
	length 275.00;
	configuration lc307;
}

object overhead_line {
	name line26to31;
	phases CN;
	from node_26;
	to 031;
	length 225.00;
	configuration lc311;
}

object overhead_line {
	name line27to33;
	phases AN;
	from node_27;
	to 033;
	length 500.00;
	configuration lc309;
}

object overhead_line {
	name line28to29;
	phases ABCN;
	from 028;
	to 029;
	length 300.00;
	configuration lc302;
}

object overhead_line {
	name line29to30;
	phases ABCN;
	from 029;
	to 030;
	length 350.00;
	configuration lc302;
}

object overhead_line {
	name line30to250;
	phases ABCN;
	from 030;
	to node_250;
	length 200.00;
	configuration lc302;
}

object overhead_line {
	name line31to32;
	phases CN;
	from 031;
	to 032;
	length 300.00;
	configuration lc311;
}

object overhead_line {
	name line34to15;
	phases CN;
	from 034;
	to node_15;
	length 100.00;
	configuration lc311;
}

object overhead_line {
	name line35to36;
	phases ABN;
	from 035;
	to node_36;
	length 650.00;
	configuration lc308;
}

object overhead_line {
	name line35to40;
	phases ABCN;
	from 035;
	to node_40;
	length 250.00;
	configuration lc301;
}

object overhead_line {
	name line36to37;
	phases AN;
	from node_36;
	to 037;
	length 300.00;
	configuration lc309;
}

object overhead_line {
	name line36to38;
	phases BN;
	from node_36;
	to 038;
	length 250.00;
	configuration lc310;
}

object overhead_line {
	name line38to39;
	phases BN;
	from 038;
	to 039;
	length 325.00;
	configuration lc310;
}

object overhead_line {
	name line40to41;
	phases CN;
	from node_40;
	to 041;
	length 325.00;
	configuration lc311;
}

object overhead_line {
	name line40to42;
	phases ABCN;
	from node_40;
	to 042;
	length 250.00;
	configuration lc301;
}

object overhead_line {
	name line42to43;
	phases BN;
	from 042;
	to 043;
	length 500.00;
	configuration lc310;
}

object overhead_line {
	name line42to44;
	phases ABCN;
	from 042;
	to node_44;
	length 200.00;
	configuration lc301;
}

object overhead_line {
	name line44to45;
	phases AN;
	from node_44;
	to 045;
	length 200.00;
	configuration lc309;
}

object overhead_line {
	name line44to47;
	phases ABCN;
	from node_44;
	to 047;
	length 250.00;
	configuration lc301;
}

object overhead_line {
	name line45to46;
	phases AN;
	from 045;
	to 046;
	length 300.00;
	configuration lc309;
}

object overhead_line {
	name line47to48;
	phases ABCN;
	from 047;
	to 048;
	length 150.00;
	configuration lc304;
}

object overhead_line {
	name line47to49;
	phases ABCN;
	from 047;
	to 049;
	length 250.00;
	configuration lc304;
}

object overhead_line {
	name line49to50;
	phases ABCN;
	from 049;
	to 050;
	length 250.00;
	configuration lc304;
}

object overhead_line {
	name line50to51;
	phases ABCN;
	from 050;
	to 051;
	length 250.00;
	configuration lc304;
}

object overhead_line {
	name line51to151;
	phases ABCN;
	from 051;
	to node_151;
	length 500.00;
	configuration lc304;
}

object overhead_line {
	name line52to53;
	phases ABCN;
	from 052;
	to 053;
	length 200.00;
	configuration lc301;
}

object overhead_line {
	name line53to54;
	phases ABCN;
	from 053;
	to node_54;
	length 125.00;
	configuration lc301;
}

object overhead_line {
	name line54to55;
	phases ABCN;
	from node_54;
	to 055;
	length 275.00;
	configuration lc301;
}

object overhead_line {
	name line54to57;
	phases ABCN;
	from node_54;
	to node_57;
	length 350.00;
	configuration lc303;
}

object overhead_line {
	name line55to56;
	phases ABCN;
	from 055;
	to 056;
	length 275.00;
	configuration lc301;
}

object overhead_line {
	name line57to58;
	phases BN;
	from node_57;
	to 058;
	length 250.00;
	configuration lc310;
}

object overhead_line {
	name line57to60;
	phases ABCN;
	from node_57;
	to 060;
	length 750.00;
	configuration lc303;
}

object overhead_line {
	name line58to59;
	phases BN;
	from 058;
	to 059;
	length 250.00;
	configuration lc310;
}

object overhead_line {
	name line60to61;
	phases ABCN;
	from 060;
	to node_61;
	length 550.00;
	configuration lc305;
}

object underground_line {
	name line60to62;
	phases ABC;
	from 060;
	to 062;
	length 250.00;
	configuration lc312;
}

object underground_line {
	name line62to63;
	phases ABC;
	from 062;
	to 063;
	length 175.00;
	configuration lc312;
}

object underground_line {
	name line63to64;
	phases ABC;
	from 063;
	to 064;
	length 350.00;
	configuration lc312;
}

object underground_line {
	name line64to65;
	phases ABC;
	from 064;
	to 065;
	length 425.00;
	configuration lc312;
}

object underground_line {
	name line65to66;
	phases ABC;
	from 065;
	to 066;
	length 325.00;
	configuration lc312;
}

object overhead_line {
	name line67to68;
	phases AN;
	from node_67;
	to 068;
	length 200.00;
	configuration lc309;
}

object overhead_line {
	name line67to72;
	phases ABCN;
	from node_67;
	to node_72;
	length 275.00;
	configuration lc303;
}

object overhead_line {
	name line67to97;
	phases ABCN;
	from node_67;
	to node_97;
	length 250.00;
	configuration lc303;
}

object overhead_line {
	name line68to69;
	phases AN;
	from 068;
	to 069;
	length 275.00;
	configuration lc309;
}

object overhead_line {
	name line69to70;
	phases AN;
	from 069;
	to 070;
	length 325.00;
	configuration lc309;
}

object overhead_line {
	name line70to71;
	phases AN;
	from 070;
	to 071;
	length 275.00;
	configuration lc309;
}

object overhead_line {
	name line72to73;
	phases CN;
	from node_72;
	to 073;
	length 275.00;
	configuration lc311;
}

object overhead_line {
	name line72to76;
	phases ABCN;
	from node_72;
	to 076;
	length 200.00;
	configuration lc303;
}

object overhead_line {
	name line73to74;
	phases CN;
	from 073;
	to 074;
	length 350.00;
	configuration lc311;
}

object overhead_line {
	name line74to75;
	phases CN;
	from 074;
	to 075;
	length 400.00;
	configuration lc311;
}

object overhead_line {
	name line76to77;
	phases ABCN;
	from 076;
	to 077;
	length 400.00;
	configuration lc306;
}

object overhead_line {
	name line76to86;
	phases ABCN;
	from 076;
	to 086;
	length 700.00;
	configuration lc303;
}

object overhead_line {
	name line77to78;
	phases ABCN;
	from 077;
	to node_78;
	length 100.00;
	configuration lc306;
}

object overhead_line {
	name line78to79;
	phases ABCN;
	from node_78;
	to 079;
	length 225.00;
	configuration lc306;
}

object overhead_line {
	name line78to80;
	phases ABCN;
	from node_78;
	to 080;
	length 475.00;
	configuration lc306;
}

object overhead_line {
	name line80to81;
	phases ABCN;
	from 080;
	to node_81;
	length 475.00;
	configuration lc306;
}

object overhead_line {
	name line81to82;
	phases ABCN;
	from node_81;